MODEL 1
REMARK VINA RESULT:    -7.189      0.000      0.000
REMARK INTER + INTRA:         -10.252
REMARK INTER:                  -9.921
REMARK INTRA:                  -0.330
REMARK UNBOUND:                -0.330
REMARK SMILES Oc1ccc2c(c1)S[C@H](c1ccco1)[C@H](c1ccc(OCCN3CCCCC3)cc1)O2
REMARK SMILES IDX 20 1 19 2 16 3 17 4 30 5 18 6 29 7 15 8 2 9 3 10 7 11 4 12
REMARK SMILES IDX 6 13 5 14 8 15 31 16 9 17 1 18 10 20 11 21 14 22 12 23 13 24
REMARK SMILES IDX 21 25 22 26 23 27 24 28 28 29 25 30 27 31 26 32
REMARK H PARENT 1 19
REMARK Flexibility Score: inf
ROOT
ATOM      1  O   UNL     1      -4.186   3.061   4.069  1.00  0.00    -0.492 OA
ENDROOT
BRANCH   1   2
ATOM      2  C   UNL     1      -5.130   2.215   3.540  1.00  0.00     0.119 A 
ATOM      3  C   UNL     1      -7.130   0.481   2.495  1.00  0.00    -0.006 A 
ATOM      4  C   UNL     1      -5.860   0.594   1.900  1.00  0.00     0.011 A 
ATOM      5  C   UNL     1      -7.340   1.248   3.594  1.00  0.00     0.011 A 
ATOM      6  C   UNL     1      -4.896   1.431   2.405  1.00  0.00     0.047 A 
ATOM      7  C   UNL     1      -6.375   2.090   4.106  1.00  0.00     0.047 A 
BRANCH   3   8
ATOM      8  C   UNL     1      -8.042  -0.444   1.832  1.00  0.00     0.224 C 
ATOM      9  C   UNL     1      -9.669   4.023   0.021  1.00  0.00     0.116 A 
ATOM     10  C   UNL     1      -8.836   3.463  -0.918  1.00  0.00     0.050 A 
ATOM     11  C   UNL     1     -10.008   3.248   1.124  1.00  0.00     0.065 A 
ATOM     12  C   UNL     1      -8.369   2.181  -0.752  1.00  0.00     0.051 A 
ATOM     13  C   UNL     1      -9.551   1.981   1.296  1.00  0.00     0.054 A 
ATOM     14  C   UNL     1      -8.718   1.412   0.364  1.00  0.00     0.134 A 
ATOM     15  S   UNL     1     -10.048   1.047   2.737  1.00  0.00    -0.106 SA
ATOM     16  O   UNL     1      -8.216   0.101   0.496  1.00  0.00    -0.483 OA
ATOM     17  C   UNL     1      -9.386  -0.646   2.382  1.00  0.00     0.163 C 
BRANCH   9  18
ATOM     18  O   UNL     1     -10.142   5.321  -0.144  1.00  0.00    -0.508 OA
ATOM     19  H   UNL     1     -10.484   5.827   0.658  1.00  0.00     0.293 HD
ENDBRANCH   9  18
BRANCH  17  20
ATOM     20  C   UNL     1      -9.578  -1.584   3.470  1.00  0.00     0.121 A 
ATOM     21  C   UNL     1     -10.670  -2.306   3.892  1.00  0.00     0.047 A 
ATOM     22  O   UNL     1      -8.580  -1.898   4.302  1.00  0.00    -0.468 OA
ATOM     23  C   UNL     1     -10.263  -3.037   4.987  1.00  0.00     0.042 A 
ATOM     24  C   UNL     1      -8.939  -2.742   5.199  1.00  0.00     0.195 A 
ENDBRANCH  17  20
ENDBRANCH   3   8
ENDBRANCH   1   2
BRANCH   1  25
ATOM     25  C   UNL     1      -4.025   3.156   5.449  1.00  0.00     0.245 C 
BRANCH  25  26
ATOM     26  C   UNL     1      -2.761   2.484   5.937  1.00  0.00     0.126 C 
BRANCH  26  27
ATOM     27  N   UNL     1      -2.985   1.494   6.934  1.00  0.00    -0.300 NA
ATOM     28  C   UNL     1      -4.269   0.884   6.958  1.00  0.00     0.084 C 
ATOM     29  C   UNL     1      -1.870   0.655   7.209  1.00  0.00     0.084 C 
ATOM     30  C   UNL     1      -4.368  -0.362   6.111  1.00  0.00     0.016 C 
ATOM     31  C   UNL     1      -2.173  -0.821   7.058  1.00  0.00     0.016 C 
ATOM     32  C   UNL     1      -3.067  -1.048   5.864  1.00  0.00     0.003 C 
ENDBRANCH  26  27
ENDBRANCH  25  26
ENDBRANCH   1  25
TORSDOF 7
ENDMDL
MODEL 2
REMARK VINA RESULT:    -6.824      2.114      2.774
REMARK INTER + INTRA:          -9.747
REMARK INTER:                  -8.893
REMARK INTRA:                  -0.854
REMARK UNBOUND:                -0.330
REMARK SMILES Oc1ccc2c(c1)S[C@H](c1ccco1)[C@H](c1ccc(OCCN3CCCCC3)cc1)O2
REMARK SMILES IDX 20 1 19 2 16 3 17 4 30 5 18 6 29 7 15 8 2 9 3 10 7 11 4 12
REMARK SMILES IDX 6 13 5 14 8 15 31 16 9 17 1 18 10 20 11 21 14 22 12 23 13 24
REMARK SMILES IDX 21 25 22 26 23 27 24 28 28 29 25 30 27 31 26 32
REMARK H PARENT 1 19
REMARK Flexibility Score: inf
ROOT
ATOM      1  O   UNL     1      -3.889   3.829   5.258  1.00  0.00    -0.492 OA
ENDROOT
BRANCH   1   2
ATOM      2  C   UNL     1      -4.489   3.027   4.318  1.00  0.00     0.119 A 
ATOM      3  C   UNL     1      -5.794   1.383   2.396  1.00  0.00    -0.006 A 
ATOM      4  C   UNL     1      -4.391   1.474   2.466  1.00  0.00     0.011 A 
ATOM      5  C   UNL     1      -6.481   2.125   3.299  1.00  0.00     0.011 A 
ATOM      6  C   UNL     1      -3.763   2.268   3.394  1.00  0.00     0.047 A 
ATOM      7  C   UNL     1      -5.856   2.923   4.233  1.00  0.00     0.047 A 
BRANCH   3   8
ATOM      8  C   UNL     1      -6.303   0.504   1.349  1.00  0.00     0.224 C 
ATOM      9  C   UNL     1      -5.166   4.679  -1.326  1.00  0.00     0.116 A 
ATOM     10  C   UNL     1      -4.122   3.794  -1.457  1.00  0.00     0.050 A 
ATOM     11  C   UNL     1      -6.309   4.232  -0.676  1.00  0.00     0.065 A 
ATOM     12  C   UNL     1      -4.228   2.519  -0.955  1.00  0.00     0.051 A 
ATOM     13  C   UNL     1      -6.423   2.974  -0.177  1.00  0.00     0.054 A 
ATOM     14  C   UNL     1      -5.386   2.082  -0.302  1.00  0.00     0.134 A 
ATOM     15  S   UNL     1      -7.937   2.475   0.634  1.00  0.00    -0.106 SA
ATOM     16  O   UNL     1      -5.454   0.766   0.199  1.00  0.00    -0.483 OA
ATOM     17  C   UNL     1      -7.687   0.657   0.893  1.00  0.00     0.163 C 
BRANCH   9  18
ATOM     18  O   UNL     1      -5.060   5.971  -1.833  1.00  0.00    -0.508 OA
ATOM     19  H   UNL     1      -4.365   6.593  -1.453  1.00  0.00     0.293 HD
ENDBRANCH   9  18
BRANCH  17  20
ATOM     20  C   UNL     1      -8.759   0.026   1.638  1.00  0.00     0.121 A 
ATOM     21  C   UNL     1      -8.762  -0.836   2.709  1.00  0.00     0.047 A 
ATOM     22  O   UNL     1     -10.041   0.239   1.327  1.00  0.00    -0.468 OA
ATOM     23  C   UNL     1     -10.082  -1.107   2.997  1.00  0.00     0.042 A 
ATOM     24  C   UNL     1     -10.843  -0.403   2.096  1.00  0.00     0.195 A 
ENDBRANCH  17  20
ENDBRANCH   3   8
ENDBRANCH   1   2
BRANCH   1  25
ATOM     25  C   UNL     1      -3.737   3.380   6.568  1.00  0.00     0.245 C 
BRANCH  25  26
ATOM     26  C   UNL     1      -2.546   2.462   6.735  1.00  0.00     0.126 C 
BRANCH  26  27
ATOM     27  N   UNL     1      -2.855   1.230   7.376  1.00  0.00    -0.300 NA
ATOM     28  C   UNL     1      -4.206   0.793   7.312  1.00  0.00     0.084 C 
ATOM     29  C   UNL     1      -1.850   0.230   7.272  1.00  0.00     0.084 C 
ATOM     30  C   UNL     1      -4.506  -0.086   6.122  1.00  0.00     0.016 C 
ATOM     31  C   UNL     1      -2.352  -1.071   6.682  1.00  0.00     0.016 C 
ATOM     32  C   UNL     1      -3.320  -0.792   5.558  1.00  0.00     0.003 C 
ENDBRANCH  26  27
ENDBRANCH  25  26
ENDBRANCH   1  25
TORSDOF 7
ENDMDL
MODEL 3
REMARK VINA RESULT:    -6.532      2.506      5.032
REMARK INTER + INTRA:          -9.344
REMARK INTER:                  -8.558
REMARK INTRA:                  -0.786
REMARK UNBOUND:                -0.330
REMARK SMILES Oc1ccc2c(c1)S[C@H](c1ccco1)[C@H](c1ccc(OCCN3CCCCC3)cc1)O2
REMARK SMILES IDX 20 1 19 2 16 3 17 4 30 5 18 6 29 7 15 8 2 9 3 10 7 11 4 12
REMARK SMILES IDX 6 13 5 14 8 15 31 16 9 17 1 18 10 20 11 21 14 22 12 23 13 24
REMARK SMILES IDX 21 25 22 26 23 27 24 28 28 29 25 30 27 31 26 32
REMARK H PARENT 1 19
REMARK Flexibility Score: inf
ROOT
ATOM      1  O   UNL     1      -4.607  -0.396   6.172  1.00  0.00    -0.492 OA
ENDROOT
BRANCH   1   2
ATOM      2  C   UNL     1      -4.950   0.331   5.058  1.00  0.00     0.119 A 
ATOM      3  C   UNL     1      -5.636   1.789   2.712  1.00  0.00    -0.006 A 
ATOM      4  C   UNL     1      -5.898   2.289   4.001  1.00  0.00     0.011 A 
ATOM      5  C   UNL     1      -5.039   0.572   2.660  1.00  0.00     0.011 A 
ATOM      6  C   UNL     1      -5.567   1.585   5.132  1.00  0.00     0.047 A 
ATOM      7  C   UNL     1      -4.704  -0.139   3.792  1.00  0.00     0.047 A 
BRANCH   3   8
ATOM      8  C   UNL     1      -6.057   2.654   1.616  1.00  0.00     0.224 C 
ATOM      9  C   UNL     1     -10.249  -0.135   2.345  1.00  0.00     0.116 A 
ATOM     10  C   UNL     1     -10.415   1.060   3.004  1.00  0.00     0.050 A 
ATOM     11  C   UNL     1      -9.128  -0.272   1.537  1.00  0.00     0.065 A 
ATOM     12  C   UNL     1      -9.493   2.068   2.854  1.00  0.00     0.051 A 
ATOM     13  C   UNL     1      -8.212   0.718   1.381  1.00  0.00     0.054 A 
ATOM     14  C   UNL     1      -8.367   1.915   2.036  1.00  0.00     0.134 A 
ATOM     15  S   UNL     1      -6.803   0.463   0.310  1.00  0.00    -0.106 SA
ATOM     16  O   UNL     1      -7.445   2.974   1.909  1.00  0.00    -0.483 OA
ATOM     17  C   UNL     1      -6.024   2.143   0.244  1.00  0.00     0.163 C 
BRANCH   9  18
ATOM     18  O   UNL     1     -11.182  -1.157   2.498  1.00  0.00    -0.508 OA
ATOM     19  H   UNL     1     -12.105  -0.935   2.835  1.00  0.00     0.293 HD
ENDBRANCH   9  18
BRANCH  17  20
ATOM     20  C   UNL     1      -4.781   2.177  -0.501  1.00  0.00     0.121 A 
ATOM     21  C   UNL     1      -3.873   1.199  -0.836  1.00  0.00     0.047 A 
ATOM     22  O   UNL     1      -4.311   3.316  -1.017  1.00  0.00    -0.468 OA
ATOM     23  C   UNL     1      -2.874   1.817  -1.557  1.00  0.00     0.042 A 
ATOM     24  C   UNL     1      -3.201   3.148  -1.640  1.00  0.00     0.195 A 
ENDBRANCH  17  20
ENDBRANCH   3   8
ENDBRANCH   1   2
BRANCH   1  25
ATOM     25  C   UNL     1      -3.515  -0.015   6.948  1.00  0.00     0.245 C 
BRANCH  25  26
ATOM     26  C   UNL     1      -2.199  -0.502   6.382  1.00  0.00     0.126 C 
BRANCH  26  27
ATOM     27  N   UNL     1      -1.196   0.506   6.312  1.00  0.00    -0.300 NA
ATOM     28  C   UNL     1      -0.886   1.016   5.022  1.00  0.00     0.084 C 
ATOM     29  C   UNL     1      -1.205   1.437   7.386  1.00  0.00     0.084 C 
ATOM     30  C   UNL     1      -1.711   2.217   4.627  1.00  0.00     0.016 C 
ATOM     31  C   UNL     1      -1.310   2.878   6.935  1.00  0.00     0.016 C 
ATOM     32  C   UNL     1      -2.268   2.991   5.774  1.00  0.00     0.003 C 
ENDBRANCH  26  27
ENDBRANCH  25  26
ENDBRANCH   1  25
TORSDOF 7
ENDMDL
MODEL 4
REMARK VINA RESULT:    -6.505      3.126      6.291
REMARK INTER + INTRA:          -9.308
REMARK INTER:                  -8.170
REMARK INTRA:                  -1.138
REMARK UNBOUND:                -0.330
REMARK SMILES Oc1ccc2c(c1)S[C@H](c1ccco1)[C@H](c1ccc(OCCN3CCCCC3)cc1)O2
REMARK SMILES IDX 20 1 19 2 16 3 17 4 30 5 18 6 29 7 15 8 2 9 3 10 7 11 4 12
REMARK SMILES IDX 6 13 5 14 8 15 31 16 9 17 1 18 10 20 11 21 14 22 12 23 13 24
REMARK SMILES IDX 21 25 22 26 23 27 24 28 28 29 25 30 27 31 26 32
REMARK H PARENT 1 19
REMARK Flexibility Score: inf
ROOT
ATOM      1  O   UNL     1      -1.013   3.276   1.359  1.00  0.00    -0.492 OA
ENDROOT
BRANCH   1   2
ATOM      2  C   UNL     1      -2.181   2.947   2.002  1.00  0.00     0.119 A 
ATOM      3  C   UNL     1      -4.607   2.211   3.295  1.00  0.00    -0.006 A 
ATOM      4  C   UNL     1      -3.876   3.349   3.680  1.00  0.00     0.011 A 
ATOM      5  C   UNL     1      -4.084   1.489   2.272  1.00  0.00     0.011 A 
ATOM      6  C   UNL     1      -2.705   3.704   3.056  1.00  0.00     0.047 A 
ATOM      7  C   UNL     1      -2.909   1.841   1.642  1.00  0.00     0.047 A 
BRANCH   3   8
ATOM      8  C   UNL     1      -5.823   1.968   4.063  1.00  0.00     0.224 C 
ATOM      9  C   UNL     1      -2.373  -0.524   6.851  1.00  0.00     0.116 A 
ATOM     10  C   UNL     1      -2.571   0.710   7.424  1.00  0.00     0.050 A 
ATOM     11  C   UNL     1      -3.208  -0.885   5.800  1.00  0.00     0.065 A 
ATOM     12  C   UNL     1      -3.564   1.539   6.959  1.00  0.00     0.051 A 
ATOM     13  C   UNL     1      -4.191  -0.073   5.334  1.00  0.00     0.054 A 
ATOM     14  C   UNL     1      -4.397   1.162   5.900  1.00  0.00     0.134 A 
ATOM     15  S   UNL     1      -5.231  -0.622   3.987  1.00  0.00    -0.106 SA
ATOM     16  O   UNL     1      -5.403   2.042   5.453  1.00  0.00    -0.483 OA
ATOM     17  C   UNL     1      -6.531   0.695   3.904  1.00  0.00     0.163 C 
BRANCH   9  18
ATOM     18  O   UNL     1      -1.368  -1.364   7.320  1.00  0.00    -0.508 OA
ATOM     19  H   UNL     1      -0.432  -1.003   7.423  1.00  0.00     0.293 HD
ENDBRANCH   9  18
BRANCH  17  20
ATOM     20  C   UNL     1      -7.458   0.526   2.802  1.00  0.00     0.121 A 
ATOM     21  C   UNL     1      -7.972  -0.589   2.184  1.00  0.00     0.047 A 
ATOM     22  O   UNL     1      -7.992   1.579   2.176  1.00  0.00    -0.468 OA
ATOM     23  C   UNL     1      -8.812  -0.139   1.189  1.00  0.00     0.042 A 
ATOM     24  C   UNL     1      -8.787   1.233   1.230  1.00  0.00     0.195 A 
ENDBRANCH  17  20
ENDBRANCH   3   8
ENDBRANCH   1   2
BRANCH   1  25
ATOM     25  C   UNL     1       0.032   2.357   1.289  1.00  0.00     0.245 C 
BRANCH  25  26
ATOM     26  C   UNL     1       1.297   2.860   1.951  1.00  0.00     0.126 C 
BRANCH  26  27
ATOM     27  N   UNL     1       1.621   2.183   3.159  1.00  0.00    -0.300 NA
ATOM     28  C   UNL     1       2.205   2.961   4.195  1.00  0.00     0.084 C 
ATOM     29  C   UNL     1       0.692   1.181   3.554  1.00  0.00     0.084 C 
ATOM     30  C   UNL     1       1.199   3.566   5.144  1.00  0.00     0.016 C 
ATOM     31  C   UNL     1       0.146   1.380   4.951  1.00  0.00     0.016 C 
ATOM     32  C   UNL     1      -0.106   2.846   5.207  1.00  0.00     0.003 C 
ENDBRANCH  26  27
ENDBRANCH  25  26
ENDBRANCH   1  25
TORSDOF 7
ENDMDL
MODEL 5
REMARK VINA RESULT:    -6.319      4.542      7.352
REMARK INTER + INTRA:          -9.051
REMARK INTER:                  -9.217
REMARK INTRA:                   0.166
REMARK UNBOUND:                -0.330
REMARK SMILES Oc1ccc2c(c1)S[C@H](c1ccco1)[C@H](c1ccc(OCCN3CCCCC3)cc1)O2
REMARK SMILES IDX 20 1 19 2 16 3 17 4 30 5 18 6 29 7 15 8 2 9 3 10 7 11 4 12
REMARK SMILES IDX 6 13 5 14 8 15 31 16 9 17 1 18 10 20 11 21 14 22 12 23 13 24
REMARK SMILES IDX 21 25 22 26 23 27 24 28 28 29 25 30 27 31 26 32
REMARK H PARENT 1 19
REMARK Flexibility Score: inf
ROOT
ATOM      1  O   UNL     1      -1.253   2.415   0.626  1.00  0.00    -0.492 OA
ENDROOT
BRANCH   1   2
ATOM      2  C   UNL     1      -2.336   2.287   1.461  1.00  0.00     0.119 A 
ATOM      3  C   UNL     1      -4.544   2.053   3.242  1.00  0.00    -0.006 A 
ATOM      4  C   UNL     1      -4.591   1.549   1.930  1.00  0.00     0.011 A 
ATOM      5  C   UNL     1      -3.383   2.655   3.603  1.00  0.00     0.011 A 
ATOM      6  C   UNL     1      -3.526   1.663   1.071  1.00  0.00     0.047 A 
ATOM      7  C   UNL     1      -2.309   2.772   2.746  1.00  0.00     0.047 A 
BRANCH   3   8
ATOM      8  C   UNL     1      -5.760   1.861   4.022  1.00  0.00     0.224 C 
ATOM      9  C   UNL     1      -2.410  -0.851   6.724  1.00  0.00     0.116 A 
ATOM     10  C   UNL     1      -2.537   0.381   7.320  1.00  0.00     0.050 A 
ATOM     11  C   UNL     1      -3.275  -1.151   5.679  1.00  0.00     0.065 A 
ATOM     12  C   UNL     1      -3.491   1.268   6.881  1.00  0.00     0.051 A 
ATOM     13  C   UNL     1      -4.221  -0.283   5.239  1.00  0.00     0.054 A 
ATOM     14  C   UNL     1      -4.355   0.952   5.827  1.00  0.00     0.134 A 
ATOM     15  S   UNL     1      -5.304  -0.755   3.897  1.00  0.00    -0.106 SA
ATOM     16  O   UNL     1      -5.321   1.889   5.408  1.00  0.00    -0.483 OA
ATOM     17  C   UNL     1      -6.536   0.629   3.853  1.00  0.00     0.163 C 
BRANCH   9  18
ATOM     18  O   UNL     1      -1.443  -1.749   7.166  1.00  0.00    -0.508 OA
ATOM     19  H   UNL     1      -0.494  -1.652   6.840  1.00  0.00     0.293 HD
ENDBRANCH   9  18
BRANCH  17  20
ATOM     20  C   UNL     1      -7.483   0.526   2.761  1.00  0.00     0.121 A 
ATOM     21  C   UNL     1      -7.936  -0.542   2.022  1.00  0.00     0.047 A 
ATOM     22  O   UNL     1      -8.111   1.605   2.282  1.00  0.00    -0.468 OA
ATOM     23  C   UNL     1      -8.839  -0.038   1.110  1.00  0.00     0.042 A 
ATOM     24  C   UNL     1      -8.910   1.317   1.319  1.00  0.00     0.195 A 
ENDBRANCH  17  20
ENDBRANCH   3   8
ENDBRANCH   1   2
BRANCH   1  25
ATOM     25  C   UNL     1      -1.165   1.640  -0.529  1.00  0.00     0.245 C 
BRANCH  25  26
ATOM     26  C   UNL     1      -0.073   2.112  -1.465  1.00  0.00     0.126 C 
BRANCH  26  27
ATOM     27  N   UNL     1       1.158   2.402  -0.812  1.00  0.00    -0.300 NA
ATOM     28  C   UNL     1       1.877   1.299  -0.276  1.00  0.00     0.084 C 
ATOM     29  C   UNL     1       1.924   3.440  -1.409  1.00  0.00     0.084 C 
ATOM     30  C   UNL     1       2.866   0.690  -1.241  1.00  0.00     0.016 C 
ATOM     31  C   UNL     1       3.333   3.021  -1.769  1.00  0.00     0.016 C 
ATOM     32  C   UNL     1       3.333   1.614  -2.315  1.00  0.00     0.003 C 
ENDBRANCH  26  27
ENDBRANCH  25  26
ENDBRANCH   1  25
TORSDOF 7
ENDMDL
MODEL 6
REMARK VINA RESULT:    -6.014      3.980      7.550
REMARK INTER + INTRA:          -8.630
REMARK INTER:                  -8.602
REMARK INTRA:                  -0.028
REMARK UNBOUND:                -0.330
REMARK SMILES Oc1ccc2c(c1)S[C@H](c1ccco1)[C@H](c1ccc(OCCN3CCCCC3)cc1)O2
REMARK SMILES IDX 20 1 19 2 16 3 17 4 30 5 18 6 29 7 15 8 2 9 3 10 7 11 4 12
REMARK SMILES IDX 6 13 5 14 8 15 31 16 9 17 1 18 10 20 11 21 14 22 12 23 13 24
REMARK SMILES IDX 21 25 22 26 23 27 24 28 28 29 25 30 27 31 26 32
REMARK H PARENT 1 19
REMARK Flexibility Score: inf
ROOT
ATOM      1  O   UNL     1      -1.326   2.294   0.557  1.00  0.00    -0.492 OA
ENDROOT
BRANCH   1   2
ATOM      2  C   UNL     1      -2.403   2.224   1.406  1.00  0.00     0.119 A 
ATOM      3  C   UNL     1      -4.600   2.115   3.212  1.00  0.00    -0.006 A 
ATOM      4  C   UNL     1      -4.655   1.521   1.938  1.00  0.00     0.011 A 
ATOM      5  C   UNL     1      -3.437   2.740   3.524  1.00  0.00     0.011 A 
ATOM      6  C   UNL     1      -3.595   1.575   1.067  1.00  0.00     0.047 A 
ATOM      7  C   UNL     1      -2.369   2.797   2.654  1.00  0.00     0.047 A 
BRANCH   3   8
ATOM      8  C   UNL     1      -5.812   1.977   4.011  1.00  0.00     0.224 C 
ATOM      9  C   UNL     1      -2.434  -0.506   6.894  1.00  0.00     0.116 A 
ATOM     10  C   UNL     1      -2.564   0.767   7.394  1.00  0.00     0.050 A 
ATOM     11  C   UNL     1      -3.303  -0.889   5.879  1.00  0.00     0.065 A 
ATOM     12  C   UNL     1      -3.526   1.613   6.895  1.00  0.00     0.051 A 
ATOM     13  C   UNL     1      -4.256  -0.061   5.380  1.00  0.00     0.054 A 
ATOM     14  C   UNL     1      -4.393   1.214   5.872  1.00  0.00     0.134 A 
ATOM     15  S   UNL     1      -5.343  -0.638   4.083  1.00  0.00    -0.106 SA
ATOM     16  O   UNL     1      -5.365   2.113   5.388  1.00  0.00    -0.483 OA
ATOM     17  C   UNL     1      -6.582   0.732   3.940  1.00  0.00     0.163 C 
BRANCH   9  18
ATOM     18  O   UNL     1      -1.461  -1.364   7.397  1.00  0.00    -0.508 OA
ATOM     19  H   UNL     1      -0.506  -1.046   7.455  1.00  0.00     0.293 HD
ENDBRANCH   9  18
BRANCH  17  20
ATOM     20  C   UNL     1      -7.535   0.542   2.864  1.00  0.00     0.121 A 
ATOM     21  C   UNL     1      -7.985  -0.581   2.211  1.00  0.00     0.047 A 
ATOM     22  O   UNL     1      -8.170   1.578   2.308  1.00  0.00    -0.468 OA
ATOM     23  C   UNL     1      -8.895  -0.152   1.268  1.00  0.00     0.042 A 
ATOM     24  C   UNL     1      -8.972   1.214   1.375  1.00  0.00     0.195 A 
ENDBRANCH  17  20
ENDBRANCH   3   8
ENDBRANCH   1   2
BRANCH   1  25
ATOM     25  C   UNL     1      -1.278   1.492  -0.581  1.00  0.00     0.245 C 
BRANCH  25  26
ATOM     26  C   UNL     1      -1.094   2.292  -1.852  1.00  0.00     0.126 C 
BRANCH  26  27
ATOM     27  N   UNL     1      -2.193   2.204  -2.750  1.00  0.00    -0.300 NA
ATOM     28  C   UNL     1      -3.392   2.865  -2.368  1.00  0.00     0.084 C 
ATOM     29  C   UNL     1      -1.847   2.247  -4.129  1.00  0.00     0.084 C 
ATOM     30  C   UNL     1      -3.483   4.291  -2.855  1.00  0.00     0.016 C 
ATOM     31  C   UNL     1      -2.561   3.338  -4.897  1.00  0.00     0.016 C 
ATOM     32  C   UNL     1      -2.652   4.590  -4.057  1.00  0.00     0.003 C 
ENDBRANCH  26  27
ENDBRANCH  25  26
ENDBRANCH   1  25
TORSDOF 7
ENDMDL
MODEL 7
REMARK VINA RESULT:    -5.971      2.672      4.082
REMARK INTER + INTRA:          -8.570
REMARK INTER:                  -8.069
REMARK INTRA:                  -0.502
REMARK UNBOUND:                -0.330
REMARK SMILES Oc1ccc2c(c1)S[C@H](c1ccco1)[C@H](c1ccc(OCCN3CCCCC3)cc1)O2
REMARK SMILES IDX 20 1 19 2 16 3 17 4 30 5 18 6 29 7 15 8 2 9 3 10 7 11 4 12
REMARK SMILES IDX 6 13 5 14 8 15 31 16 9 17 1 18 10 20 11 21 14 22 12 23 13 24
REMARK SMILES IDX 21 25 22 26 23 27 24 28 28 29 25 30 27 31 26 32
REMARK H PARENT 1 19
REMARK Flexibility Score: inf
ROOT
ATOM      1  O   UNL     1      -3.845  -0.819   5.596  1.00  0.00    -0.492 OA
ENDROOT
BRANCH   1   2
ATOM      2  C   UNL     1      -4.808  -0.373   4.724  1.00  0.00     0.119 A 
ATOM      3  C   UNL     1      -6.810   0.609   2.955  1.00  0.00    -0.006 A 
ATOM      4  C   UNL     1      -6.215  -0.654   2.776  1.00  0.00     0.011 A 
ATOM      5  C   UNL     1      -6.370   1.325   4.019  1.00  0.00     0.011 A 
ATOM      6  C   UNL     1      -5.249  -1.126   3.630  1.00  0.00     0.047 A 
ATOM      7  C   UNL     1      -5.401   0.855   4.881  1.00  0.00     0.047 A 
BRANCH   3   8
ATOM      8  C   UNL     1      -7.811   0.966   1.956  1.00  0.00     0.224 C 
ATOM      9  C   UNL     1      -3.585   2.854  -0.157  1.00  0.00     0.116 A 
ATOM     10  C   UNL     1      -3.835   1.629  -0.728  1.00  0.00     0.050 A 
ATOM     11  C   UNL     1      -4.550   3.371   0.700  1.00  0.00     0.065 A 
ATOM     12  C   UNL     1      -5.001   0.958  -0.448  1.00  0.00     0.051 A 
ATOM     13  C   UNL     1      -5.705   2.716   0.983  1.00  0.00     0.054 A 
ATOM     14  C   UNL     1      -5.963   1.491   0.418  1.00  0.00     0.134 A 
ATOM     15  S   UNL     1      -6.900   3.460   2.085  1.00  0.00    -0.106 SA
ATOM     16  O   UNL     1      -7.146   0.770   0.678  1.00  0.00    -0.483 OA
ATOM     17  C   UNL     1      -8.358   2.326   1.941  1.00  0.00     0.163 C 
BRANCH   9  18
ATOM     18  O   UNL     1      -2.404   3.533  -0.438  1.00  0.00    -0.508 OA
ATOM     19  H   UNL     1      -2.378   4.536  -0.343  1.00  0.00     0.293 HD
ENDBRANCH   9  18
BRANCH  17  20
ATOM     20  C   UNL     1      -9.448   2.667   2.835  1.00  0.00     0.121 A 
ATOM     21  C   UNL     1      -9.831   3.850   3.422  1.00  0.00     0.047 A 
ATOM     22  O   UNL     1     -10.323   1.745   3.246  1.00  0.00    -0.468 OA
ATOM     23  C   UNL     1     -10.949   3.572   4.178  1.00  0.00     0.042 A 
ATOM     24  C   UNL     1     -11.214   2.233   4.030  1.00  0.00     0.195 A 
ENDBRANCH  17  20
ENDBRANCH   3   8
ENDBRANCH   1   2
BRANCH   1  25
ATOM     25  C   UNL     1      -2.548  -0.316   5.522  1.00  0.00     0.245 C 
BRANCH  25  26
ATOM     26  C   UNL     1      -2.115   0.370   6.800  1.00  0.00     0.126 C 
BRANCH  26  27
ATOM     27  N   UNL     1      -1.439   1.604   6.588  1.00  0.00    -0.300 NA
ATOM     28  C   UNL     1      -1.798   2.343   5.429  1.00  0.00     0.084 C 
ATOM     29  C   UNL     1      -1.168   2.350   7.768  1.00  0.00     0.084 C 
ATOM     30  C   UNL     1      -2.917   3.329   5.657  1.00  0.00     0.016 C 
ATOM     31  C   UNL     1      -1.716   3.761   7.730  1.00  0.00     0.016 C 
ATOM     32  C   UNL     1      -3.075   3.772   7.073  1.00  0.00     0.003 C 
ENDBRANCH  26  27
ENDBRANCH  25  26
ENDBRANCH   1  25
TORSDOF 7
ENDMDL
MODEL 8
REMARK VINA RESULT:    -5.886      3.813      5.556
REMARK INTER + INTRA:          -8.454
REMARK INTER:                  -8.331
REMARK INTRA:                  -0.122
REMARK UNBOUND:                -0.330
REMARK SMILES Oc1ccc2c(c1)S[C@H](c1ccco1)[C@H](c1ccc(OCCN3CCCCC3)cc1)O2
REMARK SMILES IDX 20 1 19 2 16 3 17 4 30 5 18 6 29 7 15 8 2 9 3 10 7 11 4 12
REMARK SMILES IDX 6 13 5 14 8 15 31 16 9 17 1 18 10 20 11 21 14 22 12 23 13 24
REMARK SMILES IDX 21 25 22 26 23 27 24 28 28 29 25 30 27 31 26 32
REMARK H PARENT 1 19
REMARK Flexibility Score: inf
ROOT
ATOM      1  O   UNL     1      -3.512   3.384  -1.011  1.00  0.00    -0.492 OA
ENDROOT
BRANCH   1   2
ATOM      2  C   UNL     1      -4.035   2.497  -0.102  1.00  0.00     0.119 A 
ATOM      3  C   UNL     1      -5.163   0.639   1.736  1.00  0.00    -0.006 A 
ATOM      4  C   UNL     1      -4.091   1.478   2.091  1.00  0.00     0.011 A 
ATOM      5  C   UNL     1      -5.622   0.772   0.466  1.00  0.00     0.011 A 
ATOM      6  C   UNL     1      -3.547   2.374   1.204  1.00  0.00     0.047 A 
ATOM      7  C   UNL     1      -5.081   1.670  -0.429  1.00  0.00     0.047 A 
BRANCH   3   8
ATOM      8  C   UNL     1      -5.619  -0.261   2.788  1.00  0.00     0.224 C 
ATOM      9  C   UNL     1      -9.917   2.225   1.680  1.00  0.00     0.116 A 
ATOM     10  C   UNL     1      -9.935   1.026   1.009  1.00  0.00     0.050 A 
ATOM     11  C   UNL     1      -8.886   2.437   2.588  1.00  0.00     0.065 A 
ATOM     12  C   UNL     1      -8.960   0.085   1.243  1.00  0.00     0.051 A 
ATOM     13  C   UNL     1      -7.919   1.515   2.826  1.00  0.00     0.054 A 
ATOM     14  C   UNL     1      -7.928   0.313   2.160  1.00  0.00     0.134 A 
ATOM     15  S   UNL     1      -6.636   1.862   4.022  1.00  0.00    -0.106 SA
ATOM     16  O   UNL     1      -6.948  -0.678   2.371  1.00  0.00    -0.483 OA
ATOM     17  C   UNL     1      -5.748   0.242   4.159  1.00  0.00     0.163 C 
BRANCH   9  18
ATOM     18  O   UNL     1     -10.902   3.178   1.443  1.00  0.00    -0.508 OA
ATOM     19  H   UNL     1     -11.108   3.450   0.494  1.00  0.00     0.293 HD
ENDBRANCH   9  18
BRANCH  17  20
ATOM     20  C   UNL     1      -4.578   0.293   5.014  1.00  0.00     0.121 A 
ATOM     21  C   UNL     1      -3.573  -0.611   5.267  1.00  0.00     0.047 A 
ATOM     22  O   UNL     1      -4.305   1.372   5.753  1.00  0.00    -0.468 OA
ATOM     23  C   UNL     1      -2.723  -0.015   6.173  1.00  0.00     0.042 A 
ATOM     24  C   UNL     1      -3.231   1.232   6.443  1.00  0.00     0.195 A 
ENDBRANCH  17  20
ENDBRANCH   3   8
ENDBRANCH   1   2
BRANCH   1  25
ATOM     25  C   UNL     1      -2.204   3.843  -0.868  1.00  0.00     0.245 C 
BRANCH  25  26
ATOM     26  C   UNL     1      -1.210   3.031  -1.670  1.00  0.00     0.126 C 
BRANCH  26  27
ATOM     27  N   UNL     1       0.105   3.036  -1.128  1.00  0.00    -0.300 NA
ATOM     28  C   UNL     1       0.220   2.912   0.284  1.00  0.00     0.084 C 
ATOM     29  C   UNL     1       1.081   2.363  -1.913  1.00  0.00     0.084 C 
ATOM     30  C   UNL     1       0.340   1.486   0.762  1.00  0.00     0.016 C 
ATOM     31  C   UNL     1       1.822   1.280  -1.159  1.00  0.00     0.016 C 
ATOM     32  C   UNL     1       0.870   0.533  -0.256  1.00  0.00     0.003 C 
ENDBRANCH  26  27
ENDBRANCH  25  26
ENDBRANCH   1  25
TORSDOF 7
ENDMDL
MODEL 9
REMARK VINA RESULT:    -5.856      3.169      7.058
REMARK INTER + INTRA:          -8.411
REMARK INTER:                  -8.003
REMARK INTRA:                  -0.408
REMARK UNBOUND:                -0.330
REMARK SMILES Oc1ccc2c(c1)S[C@H](c1ccco1)[C@H](c1ccc(OCCN3CCCCC3)cc1)O2
REMARK SMILES IDX 20 1 19 2 16 3 17 4 30 5 18 6 29 7 15 8 2 9 3 10 7 11 4 12
REMARK SMILES IDX 6 13 5 14 8 15 31 16 9 17 1 18 10 20 11 21 14 22 12 23 13 24
REMARK SMILES IDX 21 25 22 26 23 27 24 28 28 29 25 30 27 31 26 32
REMARK H PARENT 1 19
REMARK Flexibility Score: inf
ROOT
ATOM      1  O   UNL     1      -8.950  -0.437   1.864  1.00  0.00    -0.492 OA
ENDROOT
BRANCH   1   2
ATOM      2  C   UNL     1      -7.991   0.131   2.667  1.00  0.00     0.119 A 
ATOM      3  C   UNL     1      -5.968   1.253   4.325  1.00  0.00    -0.006 A 
ATOM      4  C   UNL     1      -7.139   1.961   3.999  1.00  0.00     0.011 A 
ATOM      5  C   UNL     1      -5.866   0.006   3.801  1.00  0.00     0.011 A 
ATOM      6  C   UNL     1      -8.114   1.420   3.199  1.00  0.00     0.047 A 
ATOM      7  C   UNL     1      -6.842  -0.543   2.997  1.00  0.00     0.047 A 
BRANCH   3   8
ATOM      8  C   UNL     1      -5.028   1.971   5.177  1.00  0.00     0.224 C 
ATOM      9  C   UNL     1      -4.643   4.597   0.837  1.00  0.00     0.116 A 
ATOM     10  C   UNL     1      -5.505   5.273   1.666  1.00  0.00     0.050 A 
ATOM     11  C   UNL     1      -3.970   3.502   1.365  1.00  0.00     0.065 A 
ATOM     12  C   UNL     1      -5.680   4.864   2.967  1.00  0.00     0.051 A 
ATOM     13  C   UNL     1      -4.135   3.090   2.647  1.00  0.00     0.054 A 
ATOM     14  C   UNL     1      -4.996   3.758   3.485  1.00  0.00     0.134 A 
ATOM     15  S   UNL     1      -3.219   1.679   3.252  1.00  0.00    -0.106 SA
ATOM     16  O   UNL     1      -5.203   3.371   4.824  1.00  0.00    -0.483 OA
ATOM     17  C   UNL     1      -3.595   1.687   5.066  1.00  0.00     0.163 C 
BRANCH   9  18
ATOM     18  O   UNL     1      -4.466   5.010  -0.480  1.00  0.00    -0.508 OA
ATOM     19  H   UNL     1      -4.712   4.384  -1.231  1.00  0.00     0.293 HD
ENDBRANCH   9  18
BRANCH  17  20
ATOM     20  C   UNL     1      -3.034   0.556   5.779  1.00  0.00     0.121 A 
ATOM     21  C   UNL     1      -2.731   0.352   7.104  1.00  0.00     0.047 A 
ATOM     22  O   UNL     1      -2.703  -0.572   5.142  1.00  0.00    -0.468 OA
ATOM     23  C   UNL     1      -2.217  -0.924   7.202  1.00  0.00     0.042 A 
ATOM     24  C   UNL     1      -2.224  -1.458   5.937  1.00  0.00     0.195 A 
ENDBRANCH  17  20
ENDBRANCH   3   8
ENDBRANCH   1   2
BRANCH   1  25
ATOM     25  C   UNL     1      -9.713   0.359   1.013  1.00  0.00     0.245 C 
BRANCH  25  26
ATOM     26  C   UNL     1     -11.179   0.373   1.386  1.00  0.00     0.126 C 
BRANCH  26  27
ATOM     27  N   UNL     1     -11.809   1.634   1.191  1.00  0.00    -0.300 NA
ATOM     28  C   UNL     1     -12.927   1.929   2.018  1.00  0.00     0.084 C 
ATOM     29  C   UNL     1     -10.925   2.708   0.899  1.00  0.00     0.084 C 
ATOM     30  C   UNL     1     -12.565   2.634   3.303  1.00  0.00     0.016 C 
ATOM     31  C   UNL     1     -11.062   3.879   1.849  1.00  0.00     0.016 C 
ATOM     32  C   UNL     1     -11.276   3.382   3.258  1.00  0.00     0.003 C 
ENDBRANCH  26  27
ENDBRANCH  25  26
ENDBRANCH   1  25
TORSDOF 7
ENDMDL
MODEL 10
REMARK VINA RESULT:    -5.823      2.838      5.434
REMARK INTER + INTRA:          -8.366
REMARK INTER:                  -7.251
REMARK INTRA:                  -1.115
REMARK UNBOUND:                -0.330
REMARK SMILES Oc1ccc2c(c1)S[C@H](c1ccco1)[C@H](c1ccc(OCCN3CCCCC3)cc1)O2
REMARK SMILES IDX 20 1 19 2 16 3 17 4 30 5 18 6 29 7 15 8 2 9 3 10 7 11 4 12
REMARK SMILES IDX 6 13 5 14 8 15 31 16 9 17 1 18 10 20 11 21 14 22 12 23 13 24
REMARK SMILES IDX 21 25 22 26 23 27 24 28 28 29 25 30 27 31 26 32
REMARK H PARENT 1 19
REMARK Flexibility Score: inf
ROOT
ATOM      1  O   UNL     1      -4.596   4.758   5.499  1.00  0.00    -0.492 OA
ENDROOT
BRANCH   1   2
ATOM      2  C   UNL     1      -4.904   4.383   4.214  1.00  0.00     0.119 A 
ATOM      3  C   UNL     1      -5.478   3.579   1.545  1.00  0.00    -0.006 A 
ATOM      4  C   UNL     1      -6.417   4.271   2.331  1.00  0.00     0.011 A 
ATOM      5  C   UNL     1      -4.286   3.320   2.138  1.00  0.00     0.011 A 
ATOM      6  C   UNL     1      -6.139   4.658   3.618  1.00  0.00     0.047 A 
ATOM      7  C   UNL     1      -4.001   3.707   3.430  1.00  0.00     0.047 A 
BRANCH   3   8
ATOM      8  C   UNL     1      -5.931   3.232   0.203  1.00  0.00     0.224 C 
ATOM      9  C   UNL     1      -8.064  -0.474   2.960  1.00  0.00     0.116 A 
ATOM     10  C   UNL     1      -9.014   0.496   2.746  1.00  0.00     0.050 A 
ATOM     11  C   UNL     1      -6.851  -0.342   2.296  1.00  0.00     0.065 A 
ATOM     12  C   UNL     1      -8.752   1.548   1.901  1.00  0.00     0.051 A 
ATOM     13  C   UNL     1      -6.582   0.694   1.460  1.00  0.00     0.054 A 
ATOM     14  C   UNL     1      -7.525   1.669   1.240  1.00  0.00     0.134 A 
ATOM     15  S   UNL     1      -4.999   0.780   0.634  1.00  0.00    -0.106 SA
ATOM     16  O   UNL     1      -7.296   2.764   0.382  1.00  0.00    -0.483 OA
ATOM     17  C   UNL     1      -5.225   2.190  -0.547  1.00  0.00     0.163 C 
BRANCH   9  18
ATOM     18  O   UNL     1      -8.327  -1.539   3.816  1.00  0.00    -0.508 OA
ATOM     19  H   UNL     1      -7.560  -2.003   4.275  1.00  0.00     0.293 HD
ENDBRANCH   9  18
BRANCH  17  20
ATOM     20  C   UNL     1      -4.022   2.530  -1.281  1.00  0.00     0.121 A 
ATOM     21  C   UNL     1      -2.830   1.869  -1.466  1.00  0.00     0.047 A 
ATOM     22  O   UNL     1      -3.919   3.680  -1.953  1.00  0.00    -0.468 OA
ATOM     23  C   UNL     1      -2.048   2.678  -2.262  1.00  0.00     0.042 A 
ATOM     24  C   UNL     1      -2.784   3.804  -2.539  1.00  0.00     0.195 A 
ENDBRANCH  17  20
ENDBRANCH   3   8
ENDBRANCH   1   2
BRANCH   1  25
ATOM     25  C   UNL     1      -3.673   4.024   6.240  1.00  0.00     0.245 C 
BRANCH  25  26
ATOM     26  C   UNL     1      -4.322   2.934   7.066  1.00  0.00     0.126 C 
BRANCH  26  27
ATOM     27  N   UNL     1      -3.642   1.686   7.005  1.00  0.00    -0.300 NA
ATOM     28  C   UNL     1      -4.441   0.513   7.083  1.00  0.00     0.084 C 
ATOM     29  C   UNL     1      -2.532   1.650   6.117  1.00  0.00     0.084 C 
ATOM     30  C   UNL     1      -4.901  -0.001   5.740  1.00  0.00     0.016 C 
ATOM     31  C   UNL     1      -2.622   0.547   5.083  1.00  0.00     0.016 C 
ATOM     32  C   UNL     1      -4.042   0.410   4.592  1.00  0.00     0.003 C 
ENDBRANCH  26  27
ENDBRANCH  25  26
ENDBRANCH   1  25
TORSDOF 7
ENDMDL
