REMARK SMILES Oc1ccc2c(c1)S[C@H](c1ccco1)[C@H](c1ccc(OCCN3CCCCC3)cc1)O2
REMARK SMILES IDX 20 1 19 2 16 3 17 4 30 5 18 6 29 7 15 8 2 9 3 10 7 11 4 12
REMARK SMILES IDX 6 13 5 14 8 15 31 16 9 17 1 18 10 20 11 21 14 22 12 23 13 24
REMARK SMILES IDX 21 25 22 26 23 27 24 28 28 29 25 30 27 31 26 32
REMARK H PARENT 1 19
REMARK Flexibility Score: inf
ROOT
ATOM      1  O   UNL     1      -1.625  -0.493   0.521  1.00  0.00    -0.492 OA
ENDROOT
BRANCH   1   2
ATOM      2  C   UNL     1      -0.375  -0.062   0.149  1.00  0.00     0.119 A 
ATOM      3  C   UNL     1       2.223   0.859  -0.560  1.00  0.00    -0.006 A 
ATOM      4  C   UNL     1       1.419   0.137  -1.461  1.00  0.00     0.011 A 
ATOM      5  C   UNL     1       1.683   1.087   0.663  1.00  0.00     0.011 A 
ATOM      6  C   UNL     1       0.166  -0.307  -1.118  1.00  0.00     0.047 A 
ATOM      7  C   UNL     1       0.425   0.644   1.013  1.00  0.00     0.047 A 
BRANCH   3   8
ATOM      8  C   UNL     1       3.530   1.250  -1.075  1.00  0.00     0.224 C 
ATOM      9  C   UNL     1       4.528  -3.397   0.739  1.00  0.00     0.116 A 
ATOM     10  C   UNL     1       4.319  -3.506  -0.615  1.00  0.00     0.050 A 
ATOM     11  C   UNL     1       4.584  -2.118   1.279  1.00  0.00     0.065 A 
ATOM     12  C   UNL     1       4.174  -2.378  -1.387  1.00  0.00     0.051 A 
ATOM     13  C   UNL     1       4.442  -0.998   0.525  1.00  0.00     0.054 A 
ATOM     14  C   UNL     1       4.232  -1.096  -0.829  1.00  0.00     0.134 A 
ATOM     15  S   UNL     1       4.542   0.611   1.298  1.00  0.00    -0.106 SA
ATOM     16  O   UNL     1       4.078   0.035  -1.656  1.00  0.00    -0.483 OA
ATOM     17  C   UNL     1       4.542   1.767  -0.150  1.00  0.00     0.163 C 
BRANCH   9  18
ATOM     18  O   UNL     1       4.674  -4.538   1.522  1.00  0.00    -0.508 OA
ATOM     19  H   UNL     1       4.626  -5.445   1.085  1.00  0.00     0.293 HD
ENDBRANCH   9  18
BRANCH  17  20
ATOM     20  C   UNL     1       4.517   3.167   0.226  1.00  0.00     0.121 A 
ATOM     21  C   UNL     1       3.487   4.038   0.493  1.00  0.00     0.047 A 
ATOM     22  O   UNL     1       5.646   3.866   0.377  1.00  0.00    -0.468 OA
ATOM     23  C   UNL     1       4.064   5.252   0.799  1.00  0.00     0.042 A 
ATOM     24  C   UNL     1       5.424   5.085   0.711  1.00  0.00     0.195 A 
ENDBRANCH  17  20
ENDBRANCH   3   8
ENDBRANCH   1   2
BRANCH   1  25
ATOM     25  C   UNL     1      -2.413  -1.212  -0.375  1.00  0.00     0.245 C 
BRANCH  25  26
ATOM     26  C   UNL     1      -3.757  -1.594   0.207  1.00  0.00     0.126 C 
BRANCH  26  27
ATOM     27  N   UNL     1      -4.552  -0.480   0.595  1.00  0.00    -0.300 NA
ATOM     28  C   UNL     1      -5.056   0.345  -0.447  1.00  0.00     0.084 C 
ATOM     29  C   UNL     1      -5.412  -0.713   1.703  1.00  0.00     0.084 C 
ATOM     30  C   UNL     1      -6.413  -0.077  -0.956  1.00  0.00     0.016 C 
ATOM     31  C   UNL     1      -6.867  -0.413   1.412  1.00  0.00     0.016 C 
ATOM     32  C   UNL     1      -7.222  -0.867   0.017  1.00  0.00     0.003 C 
ENDBRANCH  26  27
ENDBRANCH  25  26
ENDBRANCH   1  25
TORSDOF 7
